ouland.net
ouldsconstruction.com
oumamira.com
oummauxo.com
ounzesyrup.com
ouosks.com
our-city.info
our-fantastic-world.com
our-little-trip.com
ouraio.com
ourallenge.com
ouramericanbrand.com
ourbabytoys.com
ourbandslabel.com
ourbdspace.com
ourbestware.com
ourbrokers-fs.com
ourcbdjourney.com
ourchoyce.com
ourcleaningdepartment.com
ourcollegeconnection.com
ourcommunityclassroom.com
ourdailysneakers.com
ourdessertmenu.com
ourdogrescue.com
oureliteproductions.com
oureos.com
ourfamilyandgod.com
ourfarmtoyourfreezer.com
ourfinalmsg.org
ourfkc.com
ourgirlysecrets.com
ourgodslove.com
ourgospelstore.com
ourhealthesource.com
ourhealthyanimals.com
ourhempire.com
ourhome-colorado.org
ourhusbandssuck.net
ouriconsrevisited.com
ourimperfectlives.com
ourirc.com
ourismanspring.com
ourjournalist.com
ourkitchenisanopenbook.com
ourlandgate.com
ourlocoville.com
ourmamaschildren.com
ourmemberlogin.com
ourmistress.com
ourmnlife.com
ournantucket.com
ouroahu.com
ourownbrands.com
ourparishmag.org
ourpastures.com
ourplanetinchange.com
ourpom.com
ourpremiersite.com
ourpride.net
ourreleafs.com
ourschoolportal.com
oursharedspace.com
oursimplefaith.com
oursmartliving.com
oursmokebreak.com
ourstarsjewelry.com
ourstonepointecenter.com
ourtangail.com
ourtexmex.com
ourtoshin.com
ourtravelstory.net
ourtreehugger.com
ourusaweb.com
ourvisionhiphop.com
ourvitalityworks.com
ourwebacademy.com
ourwebsites.net
ourweddinghome.com
ourwellnesstribe.com
ourwordscreate.com
ourwordscreateourworld.com
ourwordscreateworlds.com
ousbi.com
ousul.com
ousulun.com
out-going.com
outaisanitary.com
outavation.com
outbackabode.com
outbackdwelling.com
outbath-treatment.com
outboundtraining.net
outclassedic.com
outdoor-sar-oase.com
outdooradventurespirit.com
outdoorcpe.com
outdoorfunfactory.com
outdoorgearaudit.com
outdoorhqinfo.com
outdoorhqinfo.net
outdoorhqmail.com
outdoorhqmail.net
outdoorhqmktg.com
outdoorhqmktg.net
outdoorinfosite.com
outdoorledmedia.com
outdoorlinko.com
outdoorlivingmyrtlebeach.com
outdoorlock.com
outdoorlookup.com
outdoorpawsbristol.com
outdoorrnr.com
outdoorsaatler.com
outdoorsbox.com
outdoorscoach.com
outdoorsheaven.com
outdoorslifecoach.com
outdoorsurvivorstore.com
outdoorwoodfurnace.net
outdorlife.com
outerwearsales.com
outforceph.com
outfrontmovie.com
outgrowingaddiction.com
outharr.com
outil-emails-dynamiques.com
outils-boursiers.com
outindoorsports.com
outiy.com
outlawbikersuppliesusa.com
outlet3days.com
outletairmaxshoesshop.com
outletceramicaybano.com
outletdobras.com
outletlouis.com
outletralph-lauren.org
outletrefuge.org
outllol.com
outlookencircle.com
outlookrepairpst.com
outodoor-king.com
outoftheordinaryadventures.com
outoftheshadowspodcast.com
outoliker.com
outpacefitplan.com
outperformtherest.com
output6.com
outreachfashion.com
outriggerblog.com
outrosfilmes.com
outsajderi.com
outside-appointment.com
outside0.com
outside3.com
outside4.com
outsidedaily.net
outsidesquare.net
outsidethecrimsondoor.com
outsideunder.com
outsmartinsomniaprotocolreviews.com
outsourcefilms.com
outsourceretreat.com
outspoken-decadent.com
outspokenasian.com
outspokenconsultants.com
outtrics.com
outworldrescue.com
ouxiangqing.com
ouya6.com
ouyaornament.com
ouye56.net
ouyewl.com
ouyewl.net
ouyewuliu.com
ouyewuliu.net
ouznv1.info
ov-2q3.com
ova-health.com
ovaltinekingslangley.com
ovaltracksetup.com
ovaltracksoftware.com
ovarianoc.org
ovationmemorialservices.com
ovationprinting.com
ovationsgroup.biz
ovboxing.com
oveke.com
oveles.com
ovenhero.com
ovenjp.com
overachievr.com
overall1.com
overall2.com
overall4.com
overall5.com
overall6.com
overall7.com
overall9.com
overalldeduction.com
overboardfull.com
overboardhealthcare.org
overcashmath.com
overclocked-hardware.com
overclockingwiki.org
overcoatdeduct.com
overcomebadhabits.com
overendshop.com
overequipped.com
overequipt.com
overflowmall.com
overheadfinancialcreditrepair.com
overjoying.com
overlandbiking.com
overlandmegastore.com
overlappingconsensus.com
overlayman.com
overlijdensrisicoverzekeringvergelijken.net
overnightbnb.com
overnightmedicalsupplies.com
overnightmedicalsupply.com
overpoweredflower.com
overraskea.info
oversaturn.com
overseastradingbd.com
overshareapp.com
oversteer.net
overstockdesigner.com
overthemooncoffee.com
overtimeproductioncompany.com
overturefx.com
overview0.com
overview1.com
overview2.com
overview3.com
overview4.com
overview5.com
overview6.com
overview7.com
overview8.com
overview9.com
overviewc.com
overwatersuites.com
ovhohp.com
ovictoir.com
oviedismo.info
oviedohomeinspection.com
ovoke.com
ovolo-shop.com
ovt-v7x3c.com
ovtldyn.com
owate.com
owdjajadjaja.com
owdoi.com
owenbrightech.com
owenlc.com
owklp.com
owl-electrodomesticos.com
owlanswers.com
owlbn.com
owlluxury.com
owlsnetjapan.com
owlswears.com
owlswollen.com
owlyat-eg.com
own92101.com
ownabajafresh.com
ownbroward.com
owner-site.com
owner2.com
owner3.com
owner4.com
owner9.com
ownerfinancemyhome.com
owneritis.com
ownermanagerservices.com
owners-return.com
ownership-apparatus.com
ownidentity.net
ownmycareerwithlmrc.com
ownofthesoc.com
ownpropertydubai.com
ownsafety.org
oworq.com
owotuoye8.com
owrkasen.info
owrpcad.com
oxemenina.com
oxf99.com
oxfordgracedesigns.net
oxfordinnovations.com
oxfordinsurancepartners.com
oxfordprivateski.com
oxfordprivatevillas.com
oxi1000.org
oxingtai.com
oxingtuijiaozheng.com
oxiredes.com
oxkluera.info
oxnardpacc.com
oxoone.com
oxport.org
oxrifedm.info
oxtiluna.com
oxxernen.info
oxxoiberica.com
oxydot.net
oxygensurvey.com
oxyleb.com
oyako-tabi.info
oyamaenomichikarate.com
oye-j61cgp.com
oyearnold.com
oyede.com
oyeeseo.info
oyei.net
oyemekunatl.org
oyescanada.com
oyhal-ipxelmt3aif.com
oyichun.com
oyinsolapeintergrated.com
oylamamerkezi.com
oyncak.com
oyntc.net
oyouliao.com
oyoulive.com
oyoung-mkt.com
oysterbaycapecod.com
oysteroverseas.com
oysteroverseas.net
oysterpointhomemanagement.net
oytnwte.info
oyuci.com
oyuncakciniz.com
oyundelisiyiz.com
oyunvefilmevi.com
oywuliu.com
oz-nbs.com
oz3.net
ozaboa.com
ozaboa.net
ozairainventory.com
ozalkim.com
ozanakbaba.com
ozanakbaba.net
ozanisionline.com
ozankocakaya.com
ozasgroup.com
ozashop.info
ozbekmakina.com
ozblueskytours.com
ozburcu.com
ozceparca.com
ozczokei.com
ozdemirsapka.com
ozdiyanetsen.com
ozeapa-sportsante.com
ozelardacocukevi.com
ozeldersilanlari.org
ozelerbaymtsk.com
ozelokulajansi.com
ozelsekreterim.com
ozelsekreteriniz.com
ozenborektatli.com
ozereservations.com
ozfidancilik.com
ozgenkalip.com
ozgurcakici.com
ozieglobal.org
oziegroup.org
ozieinternational.org
ozilkeinsaat.com
oziloan.com
ozlip.com
ozmeninsaatas.com
ozmtypc.com
oznetweb.net
oznolagirls.com
ozo-concepts.com
ozoconcepts.com
ozonedepletionbook.info
ozonedepletionbook.org
ozonelaundryblog.com
ozonepetephd.info
ozonepetephd.org
ozonlaget.com
ozonoecosmesi.com
ozovgames.net
ozrockdb.com
ozsunshop.com
oztekfengeoteknik.com
oztemfiber.com
oztrekkers.com
ozturkdigital.com
ozturktas.net
ozydreams.org
ozzner.com
p-09eeoq.com
p-16vlr2.com
p-6-wkxnn75-psrhn-t6zca.com
p-afnmbg-iwhx5.com
p-baidu.com
p-by-p.com
p-giglobal.com
p-platnosc24.com
p-sunadokei.com
p00805.com
p0actrading.com
p0lycab.com
p12z.com
p1515njhgkokow.com
p1738.com
p1time.com
p1x24.com
p2-w5-mcf4-guadw99zhx.com
p22ho.info
p24cj-7x2bu-8gpfaf.com
p24p.com
p27sh-34jueg-uc4fg.com
p2cgames.com
p2kwaem-t2b6r.com
p2pbett.com
p2pbyhansi.com
p2pd.net
p2pdeposit.com
p2pdeposit.net
p2pdepositloan.com
p2pdownpayment.com
p2pdownpayment.net
p2pequity.net
p2pequityloan.com
p2ppiggyback.com
p2ppiggybackloan.com
p2ppiggybackloans.com
p2ppiggybackmortgage.com
p2pydt.com
p2wership.com
p32iy-5-g8-ahue475.com
p333deportes.com
p3467.com
p34c83pady.com
p35p.com
p3culiarstore.com
p3e65.com
p3incsolutions.com
p3ntaevents.net
p3vault.com
p3wbmxkm42.com
p3wty.com
p42rmj4tz.com
p5zzp-t89nu.com
p682ynxb-4mfggpi-mszxxdg.com
p6feynv-u3ish.com
p6j9dhc5-j46j-xi2nx-w537.com
p6zjpd-j6-c2fwx2jarye.com
p74rr4.com
p7bd4pi8.com
p7k66vcubfgpwj082jnx.net
p7mit.com
p7r7b56uyn.com
p7xx.com
p80healthythailand.com
p84kj6iazp.com
p88737.com
p89321.com
p8we4-f-8dm6dzi4fk.com
p8zkjk.com
p956-r85h-r4s4sg4-4m22zm2.com
p96zi-6n-ut7yhsm74.com
p9733.com
p9765.com
p9bb.com
p9ee5-s-9bb-hptgsf.com
p9games.com
pa-kunde.com
pa-tarutung.net
pa-up.com
pa-up.net
pa-virtual.com
pa4mmj.org
pa8uw5xx9.com
paarse1985.com
pabelitosencion.com
pabloescobartour.com
pablovasconcellos.com
pabnabd.com
pabondas.com
pabxchenyy.com
pabxlixl.com
pabxwangk.com
pabxyuxy.com
pac511.com
pacabins4sale.com
pacchieposta.info
pacelinecyclingtours.com
paceof.com
pacesandpeachtree.com
pacesclubhoa.org
pachamberfoundation.com
pachecodavid.com
pachi8.com
pacific2.com
pacificacu.com
pacificathletic.com
pacificbayholiday.com
pacificbeachcoupons.com
pacificbluesales.com
pacificcoastjewelry.com
pacificdiamondinternational.com
pacificelderlawgroup.com
pacificmacau.com
pacificnorthwestprinting.com
pacificpearlsnetas.com
pacificreviews.net
pacificsinuscenters.com
pacificskyline.org
pacificunionloop.com
pacificwaterofaz.org
pacificweekly.org
pacificweststudio.com
pacificweststudios.com
package2.com
packagec.com
packagei.com
packaget.com
packbagja.com
packbagjm.com
packerprints.com
packhorse.biz
packinghousechicago.com
packisland.com
packoutsplus.com
packplug.com
packsavsolutions.com
pacmackattack.com
pacmancoin.com
pacned.org
pacocfoundation.com
pacoche-es.com
pacolliso.net
pacopaquito.com
pacosfood.com
pacotora.com
pacsuperfoods.com
pacsupplyinfo.com
pacuti.com
pad-oem.com
padamwires.com
padco.cc
paddlesupply.com
paddyfly.com
paddypowerwatch.com
paddywatch.com
padeavenue.com
padelradio.info
padepokanairmata.com
padfans.com
padiran-restaurant.com
padleywood.com
padmachakra.com
padmachakraproductions.com
padmamatrimony.com
padoem.com
padoos.net
padovatechvillage.com
padovatechvillage.net
padpp.com
padpubquiz.com
padraomaisclean.com
padreboulevard.com
padrefc.com
padset.com
padulatende.com
paduminternational.com
paegames.com
paegamusic.com
paeiecn.info
paellanumero1.com
paessano.com
pafireflyfestival.com
pafsomarena.com
pag-novalja.net
pagalworldz.info
paganellisport.com
paganonlinemarketing.com
pagarmenos.net
pageantlifemagazine.com
pageflipdesign.com
pageit.org
pageonesearch.com
pagepilgrims.com
pageqqnow.com
pagerank-checker-tool.com
pagesaur.com
pagesofhealthylifestyle.com
pagholidings.com
pagmercado.com
pagosalandscaping.com
pahadiaunty.com
pahalaexpressmagelang.com
pahcbo.com
pahx.net
pai012.com
pai360.net
pai368.com
paidcdl.com
paidpulse.com
paidpunk.com
paigeboyadjis.com
paigegeer.com
paigehouden.com
paigemission.com
paigewarren.com
paighaammagazine.com
paijat-hame.org
paikm.com
pailinopal.com
paimaster.com
painfreebooks.com
painfuloasis.com
painnomore.org
painseattle.com
painstopsystem.com
paint0.com
paintandsippodcast.com
paintareus.com
paintballclubenergy.com
paintedquarterranch.com
painterswinnipeg.com
paintherapyinglewood.com
painting-technique.com
paintingcrewatlanta.com
paintingmode.com
paintingwithfireartwear.com
paintqatar.com
paintwestmichigan.com
paintyourmouth.com
pairnado-odasaga.com
pairpad.com
pairseasons.com
pairsharetutoring.com
paisaminer.com
paisusubali.com
pajakkonsultan.com
pajinsen.net
pajpzx.com
pajufarmers.com
pak-services.com
pak-trade.com
pakabgostar.com
pakansaritropisresidence.com
pakapokoki.com
pakatatoo.com
pakelin.com
pakero.com
paketbaru.com
paketimizgelsin.com
paketistiyorum.com
pakettoureropa.com
pakgoogletech.com
pakhandicraftsinusa.com
pakiescorts.com
pakiforums.com
pakighinabi.com
pakistanaffairsdesk.com
pakistanama.com
pakistanichatrooms.org
pakistanilawnpoint.com
pakistanlogistics.com
pakistansuperstars.com
pakitcenter.com
pakkaserv.com
pakmailpalmbeachgardens.com
pakmotorcycle.com
paknationnews.com
pakptc.com
paksamiranianco.com
pakto7swingstyle.com
pakusahandicrafts.com
palabradevida34.org
palacemoom.com
palaciosaudirac.com
palakansha.com
palapahosting.com
palapalapeque.com
palapastock.net
palapastock.org
palazzoclub.com
palazzodemoissanite.com
palazzodoriapamphilj.com
palazzolv.com
palazzomazzocchieventi.com
palazzoproperties.com
paleboon0012.com
palecroot001.com
paleo-delivers.com
paleo-express.com
paleo-gourmet.com
paleo-group.com
paleo-lounge.com
paleocomics.com
paleodieetervaringen.com
paleodrivenfoods.com
paleodrivenmeals.com
paleohousela.com
paleolifestyleblog.net
paleoreactionary.com
paleoscreen.com
palermotechvillage.com
palermotechvillage.net
palestra-on-line.com
palestras-on-line.com
paletlirafsistemleri.com
paletrafsistemleri.net
palettelounge.com
palevedaacpro.com
palfingersystems.com
palgr.com
palhademadeira.com
palhocasc.com
palidy.info
palilser.com
palingeninovoflo.com
palingupdate.info
palisadealpine.com
palkidorje.com
pallabghosalonline.com
palladiumdistribution.com
pallasathenefund.com
pallasathenefunds.com
pallasatheneventures.com
pallaviruhail.com
palletbienhoa.com
palletvietthinhan.com
palliativedoula.com
palligroup.com
palm0.com
palma-separator.com
palmacocos.com
palmauthentication.com
palmbaymelbournerealtor.org
palmbeachcountyagent.com
palmbeachrealestate.net
palmbreezechemdry.com
palmchevroletreviews.com
palmcrane.com
palmcw.com
palmechic.com
palmerfest2018.com
palmerinstitute.org
palmersseafood.com
palmetto420.com
palmettochat.com
palmettoclothing.com
palmettoclothingcompany.com
palmettoclothingcompany.net
palmettointegratedrx.com
palmettointegrativehealth.com
palmettointegrativerx.com
palmettolegalcopy.com
palmettosealifeexperience.com
palmettostarz.com
palmfibraindia.com
palmgit.com
palmharborluxuryhome.com
palmidentification.com
palmieriparquet.com
palmillacove.com
palmiyeadana.com
palmkiareviews.com
palmrvrepair.com
palmspringsauction.com
palmsproject.net
paloaltobranding.com
palomakouider.com
palominofarmfiber.com
palominosworkshop.com
palosverdeslandscaper.com
palsjokrog.com
palt-elt.org
palujia.com
palunashop.com
paluscarterasybolsos.com
palzlashes101.com
pamanaresidences.net
pamcclinic.org
pamdds.com
pamelaanizio.com
pamelael.com
pamelahillshomes.com
pamelatamez.com
pamgclinic.org
pamircard.com
pamiz-thailand.com
pammcculloughdds.com
pammortgage.com
pammouss.com
pamoresources.com
pampadumshola.org
pamperyourselfnefertem.com
pamset.com
pamsmithsted.com
pan-card.net
pan-guu.com
panacajane.com
panacea-hemp.com
panaceaapps.com
panachehairdesigns.com
panaderiayconfiteriaalem.com
panaenterprisesllc.com
panahejunoon.com
panamacityclassifieds.com
panamericansong.com
panamworldsvcs.com
panapet.com
panapu.com
panbaba.net
panbee.net
pancakeadjacent.com
pancardcenter.org
panchalogam.com
pancheeshop.com
panchonga.com
panchtattvayogshala.com
panciadimagrire.com
panda-scratch.com
panda-videnglish.com
panda991.com
panda992.com
panda993.com
panda995.com
panda996.com
pandabz.com
pandanails.info
pandandan.com
pandaphotolab.com
pandawearables.com
pandawoklacey.com
pandawx.com
pandosa.com
pandpmag.com
pandrdoor.com
paneldecors.com
panelhitz.com
panelonmobile.com
panelontv.com
panelscore.com
panelstorage.com
paneseabusinessconsultant.com
panfizjo.com
panfolk.com
pangaeafamilyfoundation.com
pangchunyan.com
pangeapharm.com
pangeatattoo.com
panghouzi.com
panghuang.net
panglehui.com
pangsystem.com
pangunongji.com
pangupictures.com
panguyaoshan.com
pangxinran.com
panhellenicpastryshop.com
panicstrickland.com
paniers-de-legumes.com
panificioganzerli.info
panikaji.com
panilabs.com
panintegraldelhorno.com
pankajmullick.org
pankian.com
pankouzs.com
panloz.com
panopticumart.com
panoptistry.com
panorama-press.net
panoramakiki.com
panoramic-dmc.com
panos-art.com
panosivusto.com
panpeeps.com
panpolylove.com
pansud.com
pantaer.com
pantairomantis.com
pantari.com
panterplay.com
panther-aerospace.com
panther-development.com
panthera-design.com
pantherdrivingschool.com
panthergeo.com
panthersflagfootball.com
panthersontheprowl.com
panthersscore.com
pantryhost.com
pantyhosedreamgirls.com
panwallzer.com
panwenwei.com
panzeritrasporti.com
panzhongwu.com
panzhouaviation.com
paod7.com
paoetry.com
paolaegonu.com
paolascafareo.com
paolayandreas.com
paolobrillo.com
paoniasmallhouse.com
paosaao.info
paozixun.com
papa-nwel.com
papabykim.com
papacherryband.com
papadeai.com
papafx.net
papaify.com
papajoesappliancerepairreviews.org
papajoesappliancerepairsucks.org
papamamaya.com
papanouel.com
papanwel.com
papapedroeliasholograficocasanova.com
paparanjeet.com
paparaxy.com
paparest.com
papatyapartievi.com
paper-gold.com
paper-lace.net
paperandprofits.com
paperautoregular.com
paperbungalow.com
paperbungalow.net
papercaregr.com
paperclipcampaign.com
papercup-irp.com
paperfreewedding.com
papergardenbouquets.net
papermashtheatre.com
papernboxesrd.com
paperpacking.net
papersandstuff.com
paperstrawcompany.com
papertroupe.com
papetes.com
paphat.com
papier-life.com
papierlose-arztpraxis.com
papigang.com
papigq.com
papiilon.com
papijoy.com
papillonflights.com
papillonholding.net
papillonrebibbia.org
papillonsairtours.com
papillonshelicopters.com
papillontourandtravel.com
papillontoursinc.com
papillontravelinc.com
papka.net
paplinks.com
papowerport.com
papoyo.com
pappabearnuts.com
pappuccino.com
pappyshemp.com
paprazi.com
papsarashop.com
papuaadventures.com
papussa.org
papyonfoto.info
papyonfoto.org
paqmicm.com
par-gas.com
par-play.com
paraambulancia.com
paraambulancias.com
parackalregency.com
paradigmmusicmanagement.com
paradisecantinas.com
paradisecreekbike.com
paradiseextracts.com
paradisehurghada.com
paradisemineralconsulting.com
paradiseridgehomes.com
paradisetackle.com
paradoorshop.com
paradosso7.com
paradukdok.com
parafiestas.org
parafusadeiras.net
paragkasliwal.com
paragoddesspress.com
paragoninstallers.com
paragoninstallers.net
paragonremodelers.com
paragonremodelinggroup.com
parahorror-con.com
paraiba10.com
paraisodasconfeiteiras.com
paraisoguarani.com
paralegalhuntingtonbeach.com
paralegalorangecounty.com
parallelcareers.net
parallelfash.com
parallelheaven.com
parallelstudioevents.com
paramedios.com
paramita-seva.com
paramitagratiamandiri.com
paramountjet.net
paramountpolebarns.com
paramountrefacing.com
paramvidya.org
paranormalhearts.com
parao.cc
parapentgirona.com
paraperro.org
parasmussen.net
parasweet.com
paratechmachinetools.com
parattkurs.com
paravanwooddesign.com
paravaran.com
paravicinipropiedades.com
parbab.com
parbazar.com
parbold.info
parchebodywrap.com
parckomo.info
parco-naturale-tre-cime.com
parcsdelagdal.com
pardon-my-french.org
pardonprocessing.org
pareesinteriors.com
parel-solutions.com
parentchildtherapy.net
parentingagonyaunt.com
parentingdiscipleship.org
parentingextraordinarypeople.com
parentingtrends.info
parentingworkbook.org
parentscrum.com
parentsword.org
parentszy.com
parenttutor.net
paresimorgh.com
parfaiteposture.com
parfumiks.com
parfumlaundryku.com
parfumminiaturen.info
parfumsarabes.com
pari-sys.com
parichavess.com
pariconsultingsrl.com
parientmont.com
paris-romance.com
paris8consulting.com
pariscitygraffiti.com
parisclub.net
parishoangkim.org
parishvilleclaudville.com
parisibrothersonline.com
parismart.net
parisoftheplainsthemovie.com
parisonrails.org
parisvacationplanner.com
parisvacationplanner.net
pariswebdesign.com
paritbay.com
pariwisatatidore.com
park-vakanties.com
parkableapp.com
parkandbark.net
parkavelasek.com
parkavenuelaservision.com
parkavimo-sistemos.com
parkbub.com
parkcitycustomloghomes.com
parkcityinvestorcoach.com
parkcitylandscape.net
parkcitylawn.net
parkcitynursery.net
parkcitysnowremoval.net
parkedfo.com
parkedinfo.com
parkemakinasi.net
parker-wilkinson.com
parkeratlanta.com
parkerepps.com
parkerhomevalue.com
parkerpublib.org
parkfo.com
parkhill4100.com
parkifo.com
parkingstuff.com
parkinsons-breakthrough.com
parklandsliving.com
parkmalpensa.net
parkmeadowsestates.com
parknbark.net
parkourhowto.com
parkourmeme.com
parkourreview.com
parkplaceftworth.com
parkshorerecords.com
parksidechristianacademy.org
parksideconstructionuk.com
parksmedicallegal.com
parkstaygo-campaigns.com
parktronikai.com
parkvillecartitleloans.com
parkwaymarketing.net
parkwestguide.com
parkwoodseniorliving.net
parkyeip.com
parlakdeniz.com
parler.cc
parmabahisbonus.com
parmabahiscasino.com
parmabahisdestek.com
parmabahisgiris.com
parmabahisonline.com
parmaklik.info
parmatechvillage.com
parmatechvillage.net
parmeshwarmetal.com
parmigo.com
parnamielevator.com
parnaveeinnerline.com
paroissestgabriel.com
paroquiasaopaulovi.com
paroquiasenhordobonfim.com
parqueacuaticonewyork.com
parquetq8.com
parra-staging.com
parrillco.com
parrot4sales.com
parrotvm.org
parrucchieribravitorino.com
pars-imen.com
parsalearn.com
parscall.com
parscr.com
parsdekorasyon.com
parseguidores.com
parsehgrp.com
parsehit.com
parsendustriyel.com
parsforosh.com
parsiaa.com
parsianprotein.com
parsiantakeout.com
parsippanynavigator.com
parsmedicalequipment.com
parsons-solutions.net
parsonscountertops.com
parsonspointedentalcare.net
parsonsscienceng.com
parsvermi.com
partcontestant.com
partedwaste.com
parthindustrialsolution.com
parthkumar.com
parthmerchant.com
parthpolymers.com
parthsarthicreation.com
parthtrading.com
participantspodcast.com
participate1.com
participate2.com
participate3.com
participate4.com
participate5.com
participedapromocao.com
particular0.com
particular1.com
particular2.com
particular3.com
particular4.com
particular5.com
particularfloating.com
particularlyalternately.com
partihaber.com
partilhate.com
partito.net
partiucompras.com
partlogo.com
partlyinc.com
partner-in-growth.com
partner1stcu.org
partnerfreedom.com
partnerroberto.com
partnerruckfuhrung-voodoo.com
partnerrv.com
partners8.com
partnersincrimeshow.com
partnerspics.com
partniori.net
partohub.com
parts0.com
parts4dodge.com
partsexpresspro.com
partus.biz
party-photography.com
party-review.com
party46.com
partybazaar.com
partybusbyace.com
partybusdowntown.com
partychrasher.com
partydecasino.com
partydia.com
partydreamsandthemes.com
partyessentialsdulceria.com
partyfyre.com
partyharedee.com
partyhouserentals.com
partyjoe.net
partymail.net
partymartpromotions.com
partyonentertainmentltd.com
partypave.com
partypiratesclan.com
partyplandirectory.com
partypubgmobile.com
partyrentalshamilton.com
partyrentalstallahassee.com
partytime.org
partyupnyc.com
partyvic.com
parvazpars.com
parveensalmirah.com
parxxk.com
pasa-de-coco.com
pasadedem.net
pasadenagames.net
pasaotoboya.com
pasarukm.com
pascalcode.com
pascalcoincn.org
pascale-dendleux.com
pascallmechanical.com
pascalmotor.com
pascalz.net
paschimelinews.com
pasco5demayo.com
pascoachegandoeba.com
pascual-gallery.com
pashito.com
pasingles.org
pasithei.com
paslanmazdekorasyon.net
pasocaia.com
pasoshopee.com
paspowerwashing.com
pasqyrimi.com
passadeiraportatil.com
passat1.com
passchristianhomes.com
passedthepost.com
passender-sattel.com
passendersattel.com
passengerworld.com
passerellesms.net
passerini-partners.com
passiflorajazz.com
passion-aquarium.com
passion-design.net
passion-gesundheit.com
passion4paparazzi.com
passion4plants.com
passion8eventz.com
passionate-souls.com
passionatefire.com
passionategoal.com
passionatelovespells.com
passionatelycalifornian.com
passionatelytexan.com
passionateservices1337.com
passionauto09.com
passionbrp.com
passiondoor.net
passionenglishcenter.com
passiongesundheit.com
passiongoals.com
passionpurposefulfillment.com
passiontoys.biz
passiveaff.com
passiveincome100.com
passiveincomemembers.com
passoxpasso.com
passportdioxide.com
passtomba.com
password-reset.net
password3.com
password4.com
password5.com
password6.com
password7.com
password8.com
passwordaerospace.org
past4.com
past6.com
pastabakes.com
pastaclog.com
pastajoyprimo.com
pastakapinda.com
pastanaga.net
pastasexi.com
pastasound.com
pastebackfill.net
pastebyte.net
pastel-aroma.com
pasteldiesel.com
pastelmuseum.com
pasteurelaurent.org
pastiaswaja.org
pasticceriamarrama.com
pastomba.com
pastorisaiasmarquez.com
pastormarcusdavidson.net
pastorspouse.com
pastryvip.net
pastrywatch.com
pastthetreeline.com
pasumaivayal.com
pasuriapart.com
pasurihotel.com
pasurisuit.com
pasword-server.com
pasxxqgs.com
pat-thomas.com
patagonia-me.com
patamarcrucialteam.com
patamx.com
pataraincehotel.com
pataspunches.com
patasystem.net
patblackdesign.com
patch1.com
patchallergy.com
patchia.com
patchrules.com
patchwork-korea.com
patchworkpearl.com
patchworkquiltfarm.com
patcoffeyinsurancestudies.com
patcoline.com
patconcepts.com
pateleagle.com
patelshow.com
patenciara.com
patent12.com
patent14.com
patent34.com
patent37.com
patent39.com
patent40.com
patent41.com
patent62.com
patent63.com
patent65.com
patent66.com
patent67.com
patent68.com
patent69.com
patent70.com
patent71.com
patent76.com
patent77.com
patent78.com
patent79.com
patent81.com
patent83.com
patent84.com
patent87.com
patent91.com
patent93.com
patent94.com
paternalinstincts.org
paternostri.com
patersonyardworks.com
patesaisi.com
path2food.com
pathakproperties.com
pathankotcollege.com
pathawaytravels.com
pathconsultancy.com
pathfindershub.org
pathfindersign.com
pathikindianfood.com
pathofhonour.com
pathofjourney.com
pathooligodb.com
pathpage.com
pathsux.com
pathtofreedomistruth.com
pathtrax.com
pathwaysot.net
patienceandpersistence.net
patientadvocatesnow.com
patientfinancialgroup.com
patientgenerator.org
patientplate.com
patientsopinions.com
patiepedro.com
patikadanismanlik.com
patilomeli.com
patinagroupseoul.com
patinahotel.com
patinatgeiluro.com
patinavignette.com
patinisev.com
patio-outfitters.net
patitva.com
patixrose.com
patlantic.com
patmillerwelding.com
patmsweet.com
patologiadv.com
patotec.com
patpgs.com
patradingcompany.com
patriceamore.com
patriciabenet.com
patriciaealan.com
patriciafardon.com
patriciamalek.com
patriciamario.com
patricianne.biz
patricianwaldron.com
patriciasoria.com
patriciasse.biz
patrick-decoration.com
patrickbradsher.com
patrickc4.com
patrickcoleman.biz
patrickibembe.com
patrickjgoss.com
patrickmansfield.org
patrickracing.net
patrickstructures.com
patrickveltriphotography.com
patriot-woodworks.com
patriotactivewear.com
patriotcngconversions.com
patriotictrolling.org
patriotlabradors.com
patriotmuscle.org
patriotsafetyservicesllc.com
patriotsolutionsus.com
patriotsonlineofficial.com
patriotstickers.net
patriotwoodworks.net
patriziazarapittrice.com
patrizierhaus.com
patrollingwindward.com
patrolyon8.com
patron-pat.com
patsfrenchies.com
pattaya-condos.net
patternfetish.com
patternshopdesign.com
pattirogers.com
pattispoetry.com
pattispoetry.net
pattonaesthetics.com
pattscrafts.net
pattyspills.com
paturigulate.com
paul-donnelly.com
paul-newman.com
paulamacneill.com
paulandmartina.com
paulaorbea.com
paulareimusic.com
paulasfavoriterecipes.com
paulasgourmetkitchen.com
paulasprivatekitchen.com
paulasyummyfoods.com
paulasyummyrecipes.com
paulavev.com
paulbackusohio.com
paulbrothersindustrialpark.com
paulbunyan.tv
paulciccone.org
pauldomaingreen.com
pauleastrvpark.com
pauledillard.info
pauledillard.org
paulette-et-cie.com
paulette-et-cie.net
paulettereadssmithcomesingalongwithme.com
paulettereadssmithcomesingalongwithme.net
paulgondry.com
paulimo.com
paulinadomozych.com
paulinestamtam.com
paulitapps.com
paullambis.com
paulmitchal.com
paulmonreal.com
paulmorand.net
paulmurrayphotography.net
paulnator.com
paulnettle.net
paulnettle.org
paulofreirecharterschool.com
paulojuniordicas.com
paulopalmeira.net
paulortuno.com
paulowniaturkey.com
paulringgold.com
paulruddcarpentry.com
paulsfueloil.com
paulsoncontracting.com
paulsondevelopment.com
paulsonhomes.net
paulsonservices.com
paultaylorf1.com
paulzee.com
pausaperu.com
pauschenpferd.com
pauseinstruments.com
pausesleep.net
pausesleep.org
pauveracruz.org
pava-design.com
pavacationcabinsforrent.com
pavanirmc.com
pavanisrinivas.com
pavankumarraju.com
pavaopahljina.com
paviatechvillage.com
paviatechvillage.net
pavik.org
pavilionbh.com
pavingphoenix.com
pavithramholidays.com
pavunko.com
paw-paws-forge.com
pawdicure-express.com
paweureka.com
pawsanimalkingdom.org
pawsinspiringprogress.org
pawsitiveartisticimpressions.com
pawsomepalsonline.com
pawsonthis.com
pawstopavementsydney.com
pawwarehouse.com
pawznkisses.com
paxderma.com
paxpaper.com
pay-dogg.com
pay-dogg.net
pay-kunde.com
pay-navi.com
pay183.com
pay185.com
pay2king.com
pay2shoot.com
pay4bug.com
pay7777777.com
pay89v.com
payadd.net
payalchopra.com
payalpatelphotography.com
payamsonline.com
payapibest.com
payapigood.com
payasopeluquinysusamigos.com
payback-ltd1.com
payback123.net
payback123.org
paybacktelepathyraveaid.com
paybellsexpress.com
paybellsfinance.com
paybellsgarments.com
paybellsgrowmoney.com
paybellsoverseas.com
paybellspakistan.com
paybookindia.com
paychexpro.com
paydayloancompensation.com
paydayloans2009.com
paydayloansltn.com
paydayloansnsc.com
paydayloansonline88.com
paydaywork.com
paydons.com
payeenpayer.com
payfullyadvances.com
payfullycommissions.com
paygraceforward.org
payhomageto.com
payinformation-accountid.info
payinformation-accountid.org
payingmate.net
payingmates.com
payingrooms.com
payitco.com
payitcompany.com
payitdigital.com
paykasakart.biz
paykasakurumsal.com
payklugnet.com
paykusventures.com
paykwiksatisnoktasi.com
paymanweb.com
paymentdirector-imfeu.org
paymentscoin.org
paymentsolutionsescrow.com
paymeron.com
payonly2ship.com
payonnaise.com
payoutproplus.net
payp-hinweis-news.net
payp-login-email.net
paypal-ebaypay.com
paypal-secure-uk.com
paypalserv-ice.com
payperdot.com
payperflips.com
payplenty.com
payrollgaji.com
payrollzoom.biz
pays12.com
paysagistest-jerome.com
paysefeed.com
paysetcash.com
paysmartus.com
paysonmcelveenracing.com
paystubs19.com
paytoocard.com
payweeklydomains.com
paywhaif.com
payybills.com
payzenter.com
payzilla.tv
payzonindin.com
pazar-istan.com
pazardan-alsat.com
pazardandirekt.com
pazarlamasepeti.com
pazazle.com
pazciwgh-mx-e8fdecnft-hf.com
pazqxz.com
pazruizluque.com
pazzleking.com
pb-na.com
pb-or.com
pb3n0-ge3lm.com
pball8.com
pbandjrecruiting.com
pbastones-br.com
pbbsinternational.com
pbbzu.com
pbcmabank.org
pbcoreresources.org
pbcsteel.com
pbcwm.com
pbdakulcha.com
pbfenerrgy.com
pbhzj.com
pbindustrialpark.com
pbjboutiqueservices.com
pbjmatch.com
pbntest.com
pbonaparte.com
pbqach.info
pbqadk.info
pbqafi.info
pbqaie.info
pbqano.info
pbr-textures.com
pbsaver.com
pbscholars.com
pbschon.com
pbtmethod.com
pbtoyourjelly.com
pbtsh.com
pbxe.org
pbz365.com
pc-akc.com
pc-clever.com
pc-down.com
pc-fix.net
pc-jisaku.com
pc9-bxfz8mwx.com
pca-inc.org
pcape.com
pcarefirstaid.com
pcb-sustain.com
pcb-sustaining.com
pcbreview.com
pcbzd.com
pccleanhelp.com
pcclfp.com
pccmz.com
pccounter.net
pcdd-yc.com
pcdit.com
pcekid.com
pcetuo.info
pcexcursionistavalencia.com
pcfixservice.com
pcforge.net
pcgedu.com
pcguruaid.com
pcgyzzc.com
pchelmagazinvz.com
pchincha-seguridad.com
pchlotteryservice.net
pchnr.com
pchowto.net
pchpw.com
pchsxh.info
pchulpdekempen.com
pchvandals.com
pci-institute.com
pcihziori-undhaiorhgaoicbh.com
pcilf.info
pcismexico.com
pcjfm.com
pcka.net
pckeauf2w-g5hyc-hicm.com
pckt5.info
pclhs.com
pcm63.com
pcmax-online.com
pcmcsr.com
pcmkp.com
pcmuh.com
pcmwf.com
pcnbuildconpvtltd.com
pcobackgammon.com
pcobor.com
pcollect.com
pcos-and-pregnancy.com
pcoscosmetics.com
pcpaihang.com
pcpug.org
pcpwx.com
pcpyz.com
pcrhempoilhq.com
pcrprecision.com
pcs-cz.com
pcsca2016edu.com
pcsolutionzennihon.com
pct-acc.com
pct-bill.com
pct-debit.com
pctechhelper.com
pctphone.com
pcutahlandscape.com
pcutahlawn.com
pcutahsnowremoval.com
pcversity.com
pcw-place.com
pcx3.com
pcyzprinting.com
pczcd.com
pczdp.com
pczhosting.com
pczservices.com
pczwebdesign.com
pd375wim-dppb38c766ywae.com
pd75hb.com
pd7k-fmb-erat5h-6g7wabjj.com
pd9p5.com
pda-plus.com
pdauaky.com
pdban.com
pdconair.com
pddga.com
pddhm.com
pddltdhk.com
pddpx.com
pdf-securityremover.com
pdfklm.com
pdfpilot.com
pdika.com
pdlnl.com
pdm-blackice.com
pdmp24.com
pdogc.com
pdoprskzcfpc.com
pdpingenieria.com
pdplantcivilgroup.com
pdpmag.com
pdpractice.com
pdqfon.com
pdqfon.net
pdrbbs.com
pdsdlawyer.com
pdshjdt.com
pdsi.info
pdt-clan.info
pdterangloyang.com
pdticketboard.com
pdw4s.com
pdxwatchandjewelry.com
pdxyls.com
pe-tye.com
pe5kku.com
peaccoin.net
peaccoin.org
peace-card.com
peaceanywhere.org
peacebyfaith.com
peacechristianschool.com
peacedalesportingclays.com
peaceeft.com
peacefairy.com
peacefularrival.com
peacefully-kindergarten.com
peacefulpalmsmassagetherapy.com
peacefulsolutionsng.com
peacegardenstatelawyers.com
peaceisamovement.com
peacenloveschools.com
peaceofficerpride.com
peaceofficerpride.net
peaceofmindlicetreatmentsalon.com
peaceoutkk.com
peaceprayernetwork.com
peacewednesday.com
peachesclean.com
peachesclothing.com
peachfinery.com
peachright.net
peachstatesteppers.com
peachstatestrucks.com
peachtreebabycakes.com
peachtreecitypeople.com
peachtreeprotocol.com
peachtreeschoolofetiquette.com
peachwavewaco.com
peacizen.com
peacockflashing.com
peacpainting.com
peadiatricinstitute.com
peak-3nosites.com
peak60.net
peakags.com
peakassetschain.com
peakcollegeca.org
peakfitness.org
peakkratom.org
peaklion.com
peakmatic.org
peaknolwedge.com
peakperformancenetwork.com
peaksixty.net
peakthirteen.com
peaktwelve.com
peakvaluepe.com
peakvaluevc.com
peakwoodcrafts.com
peakxer.com
peapoddy.com
pearceandlooney.com
pearidgeiron.com
pearl-bird.com
pearl9.com
pearlandpip.com
pearlchatparties.com
pearlkim4congress.com
pearlrestringingdm.com
pearls-now.com
pearlsofserviceky.org
pearoffate.com
pearsall-law-associates.com
pearsoil.com
peasandquiet.net
peashootapp.com
pebblesjuice.com
pec4r-ahjz5-m-uar4.com
peccalendar.org
pecheche.com
pecorasopravvissana.com
pecorinosopravvissano.com
pecquer-hedd.com
pectopainting.com
peculiarbeats.com
peculiarlyailment.com
peculiarpansy.com
pedaldatca.com
pedaliummurex.com
pedalwrencher.com
peddleboats.com
pediatramariorenteria.com
pediatricbraininjury.org
pediatricrecreationaltherapies.org
pediatricrecreationaltherapy.com
pediatricrecreationtherapy.org
pediatricstrokeawareness.org
pediatrictherapeuticrecreation.com
pedidikanindonesia.com
pedidoonlinecliente.com
pedinew.com
pedins.com
pedipedjapan.com
pedradourada.com
pedro-santos.com
pedroalvesphotography.com
pedroboletto.com
pedropintotrainer.com
pedroporrello.com
pedroportillo.com
pedroprestes.com
pedrosadeduero.com
pedst.com
pedzab.com
peeakk.com
peedeeheli.com
peefly.com
peek2save.com
peekabootheworld.com
peekatcareers.com
peekayassociates.com
peekicef.biz
peeksu.com
peencraft.com
peepants.net
peeperhollow.com
peepoddy.com
peer-skills.com
peerdeposit.com
peerhealtheducation.com
peerlessamerica.com
peerlesscleveland.com
peersi.com
peersmedia.com
peetsdoggiedaycare.com
peeyk.com
pegahschool.com
pegapapelytijera.com
pegasocapitalfund.com
pegasocapitals.com
pegasusconditioning.com
peggythinks.com
pegmpropertymaintenance.com
pegramstudios.com
pehlivanotel.com
pehnavacollection.com
peidansheng.com
peiduoge.com
peihuba.com
peijianguan.com
peiling.net
peiming.net
peintureparnum3ros.com
peirofuegosartificiales.com
peixundu.com
peixunshifm.com
peiyili.com
peiz168.com
peizichaogu.com
pekechis.org
pekhamarat.com
pekingduck.net
pelactivthailand.com
pelajarqq.com
pelakechand.com
pelan1pelan5.com
pelanpelan5.com
pelanpelan5.net
pelegrivalencia.com
pelembutlaundry.com
pelhamalhvacservices.com
pelhamschool.org
pelicanfulfillment.com
peliculadeunha.com
peliculas-ver-online.com
peliculassid.net
peliculastom.net
peliharakucing.com
peliluca.com
pelininspirituelyolu.com
pelininspirituelyolu.net
pelisaccion.com
peliseries.org
pelisky.net
pelive.org
pellapaper.com
pelletstovevent.com
pelletteriaabe.com
pelliebreeder2.com
peltband.com
pelttech8.com
pelu13.com
peluangbisnisgajikedua.com
peluqueriaideal.com
peluqueriaidealbeauty.com
pema-marketing.com
pemaindrama.com
